70
 generated by VMD
 C        40.825001       31.952999       36.587002
 H        41.838001       32.360001       36.487000
 H        40.880001       30.893000       36.866001
 H        40.261002       32.143002       35.665001
 C        40.105999       32.523998       37.790001
 C        38.616001       32.014999       38.049999
 H        38.291000       32.257999       39.069000
 H        37.786999       32.383999       37.431999
 H        38.511002       30.931000       37.924999
 C        40.887001       32.293999       39.044998
 H        41.831001       32.838001       38.923000
 H        40.386002       32.756001       39.903999
 H        40.999001       31.245001       39.348000
 O        39.974998       33.984001       37.619999
 C        39.278999       34.525002       36.578999
 O        38.518002       33.987999       35.855000
 N        39.348999       35.868999       36.775002
 H        40.066002       36.063000       37.463001
 C        38.775002       36.839001       35.757999
 C        39.145000       36.574001       34.270000
 N        38.215000       35.993999       33.424999
 H        37.325001       35.674999       33.789001
 O        40.296001       36.773998       33.844002
 H        37.682999       36.776001       35.852001
 C        39.109001       38.272999       36.188000
 H        40.195000       38.409000       36.250999
 H        38.688000       38.377998       37.195999
 C        38.339001       39.327999       35.285999
 C        39.009998       39.958000       34.263000
 C        38.342999       40.841000       33.405998
 H        38.900002       41.215000       32.551998
 H        40.035999       39.750000       33.973000
 C        36.979000       39.639000       35.541000
 H        36.499001       39.210999       36.416000
 C        36.326000       40.563000       34.727001
 H        35.257000       40.689999       34.872002
 C        36.962002       41.051998       33.585999
 O        36.181999       41.668999       32.634998
 C        35.709999       40.886002       31.618999
 C        36.279999       41.062000       30.341999
 C        36.165001       40.011002       29.408001
 H        36.687000       40.022999       28.455999
 H        36.962002       41.881001       30.135000
 C        35.030998       39.741001       31.896999
 H        34.507000       39.756001       32.848000
 C        34.915001       38.756001       31.004000
 H        34.402000       37.867001       31.362000
 C        35.466999       38.826000       29.743999
 C        35.395000       37.708000       28.761999
 O        35.313999       37.955002       27.576000
 C        35.505001       36.316002       29.371000
 H        34.544998       36.027000       29.816000
 H        35.764000       35.553001       28.625999
 N        36.700001       36.084999       30.132000
 H        37.549999       36.464001       29.732000
 C        36.849998       35.709000       31.421000
 O        35.926998       35.303001       32.077999
 C        38.277000       35.903999       31.966000
 H        38.644001       36.813999       31.475000
 C        39.255001       34.926998       31.407000
 C        39.053001       33.567001       31.631001
 H        38.301998       33.154999       32.298000
 C        39.605999       32.652000       30.723000
 H        39.257999       31.627001       30.809999
 C        40.487999       33.068001       29.693001
 H        41.029999       32.389000       29.042000
 C        40.818001       34.394001       29.535999
 H        41.502998       34.726002       28.761999
 C        40.208000       35.338001       30.434999
 H        40.446999       36.389999       30.306999
