70
 generated by VMD
 C        32.520000       33.237000       32.875999
 H        32.641998       34.326000       32.939999
 H        33.073002       32.897999       31.992001
 H        31.490000       32.910000       32.685001
 C        33.091000       32.748001       34.240002
 C        32.304001       33.091999       35.480999
 H        32.076000       34.154999       35.625999
 H        31.329000       32.618000       35.311001
 H        32.780998       32.745998       36.405998
 C        33.188000       31.201000       34.094002
 H        33.902000       30.979000       33.292000
 H        33.629002       30.846001       35.033001
 H        32.259998       30.674000       33.839001
 O        34.492001       33.035000       34.243999
 C        34.939999       34.221001       34.608002
 O        34.276001       35.262001       34.750999
 N        36.313999       34.214001       34.606998
 H        36.801998       33.327000       34.625000
 C        37.084999       35.505001       34.868000
 C        38.416000       35.376999       34.160999
 N        38.585999       36.193001       32.980000
 H        37.755001       36.613998       32.582001
 O        39.266998       34.632999       34.622002
 H        36.505001       36.280998       34.353001
 C        37.306000       35.841000       36.368999
 H        37.868999       34.980000       36.750999
 H        36.376999       35.946999       36.942001
 C        38.166000       37.082001       36.535000
 C        39.577000       37.082001       36.639000
 C        40.318001       38.285000       36.689999
 H        41.388000       38.325001       36.870998
 H        40.143002       36.155998       36.610001
 C        37.549999       38.338001       36.480999
 H        36.465000       38.355000       36.478001
 C        38.251999       39.537998       36.576000
 H        37.719002       40.466999       36.397999
 C        39.660999       39.481998       36.582001
 O        40.348999       40.665001       36.362000
 C        40.835999       40.804001       35.080002
 C        42.252998       40.929001       34.918999
 C        42.799000       40.692001       33.599998
 H        43.869999       40.778999       33.444000
 H        42.874001       41.176998       35.775002
 C        40.014000       40.651001       33.977001
 H        38.945999       40.727001       34.161999
 C        40.537998       40.535000       32.676998
 H        39.858002       40.304001       31.863001
 C        41.959000       40.536999       32.487999
 C        42.464001       40.044998       31.152000
 O        43.601002       40.243999       30.687000
 C        41.618000       39.014000       30.243000
 H        40.737999       39.643002       30.062000
 H        42.188000       38.821999       29.325001
 N        41.276001       37.797001       31.034000
 H        41.937000       37.030998       31.087999
 C        39.993000       37.464001       31.413000
 O        38.987000       38.194000       31.289000
 C        39.874001       36.222000       32.167000
 H        40.681000       36.132999       32.904999
 C        39.848999       35.026001       31.181000
 C        40.915001       34.188000       31.127001
 H        41.688000       34.179001       31.889999
 C        40.918999       33.194000       30.174000
 H        41.799000       32.569000       30.052999
 C        39.910000       33.075001       29.214001
 H        39.964001       32.311001       28.444000
 C        38.846001       33.938000       29.268000
 H        38.026001       33.824001       28.565001
 C        38.747002       34.852001       30.315001
 H        37.963001       35.603001       30.287001
