70
 generated by VMD
 C        44.073002       36.810001       36.000999
 H        45.044998       36.683998       36.492001
 H        43.355000       36.049000       36.332001
 H        44.297001       36.659000       34.937000
 C        43.483002       38.243999       36.175999
 C        43.231998       38.535999       37.669998
 H        42.597000       39.430000       37.646999
 H        42.613998       37.786999       38.180000
 H        44.153000       38.785999       38.209000
 C        44.400002       39.314999       35.550999
 H        45.438999       39.004002       35.715000
 H        44.202000       39.365002       34.473999
 H        44.167999       40.318001       35.930000
 O        42.227001       38.444000       35.407001
 C        41.146000       37.675999       35.641998
 O        41.064999       36.599998       36.248001
 N        40.210999       38.212002       34.868000
 H        40.368999       39.110001       34.426998
 C        38.880001       37.549000       34.799000
 C        38.519001       37.367001       33.363998
 N        38.554001       36.021999       32.993000
 H        38.666000       35.417000       33.798000
 O        38.221001       38.216000       32.550999
 H        38.827999       36.577000       35.304001
 C        37.869999       38.493000       35.487999
 H        37.929001       39.479000       35.011002
 H        38.245998       38.801998       36.471001
 C        36.451000       37.938999       35.577999
 C        35.580002       37.991001       34.462002
 C        34.472000       37.139999       34.401001
 H        33.854000       37.208000       33.509998
 H        35.866001       38.678001       33.669998
 C        36.119999       37.022999       36.611000
 H        36.888000       36.952000       37.375000
 C        34.945999       36.290001       36.634998
 H        34.722000       35.639000       37.473999
 C        34.139000       36.338001       35.497002
 O        33.091000       35.530998       35.372002
 C        33.162998       34.638000       34.354000
 C        32.470001       34.855999       33.125999
 C        32.848000       34.110001       32.014999
 H        32.396000       34.445000       31.086000
 H        31.791000       35.681000       32.933998
 C        34.122002       33.554001       34.466000
 H        34.658001       33.365002       35.391998
 C        34.449001       32.841999       33.299000
 H        35.249001       32.108002       33.347000
 C        33.861000       33.154999       32.040001
 C        34.369999       32.535000       30.778000
 O        33.594002       32.174999       29.941000
 C        35.900002       32.464001       30.614000
 H        36.250999       31.754999       31.374001
 H        36.138000       31.962000       29.667999
 N        36.662998       33.751999       30.712999
 H        36.186001       34.522999       30.261999
 C        37.627998       34.053001       31.687000
 O        38.164001       33.220001       32.403999
 C        37.939999       35.546001       31.681999
 H        36.970001       36.048000       31.584999
 C        38.702999       35.950001       30.452000
 C        38.160999       36.890999       29.534000
 H        37.188999       37.368000       29.621000
 C        38.957001       37.407001       28.528999
 H        38.627998       38.162998       27.820999
 C        40.303001       37.028999       28.448999
 H        40.924999       37.423000       27.650999
 C        40.826000       36.069000       29.290001
 H        41.800999       35.629002       29.101000
 C        40.016998       35.578999       30.333000
 H        40.436001       34.900002       31.070000
