70
 generated by VMD
 C        34.759998       36.465000       28.392000
 H        34.186001       35.750000       28.993000
 H        35.071999       37.266998       29.072001
 H        34.106998       36.806000       27.579000
 C        35.952999       35.737000       27.774000
 C        35.550999       34.411999       27.087000
 H        35.028000       34.537998       26.131001
 H        36.457001       33.823002       26.900999
 H        34.967999       33.772999       27.761999
 C        36.480999       36.664001       26.653000
 H        37.335999       36.206001       26.141001
 H        35.727001       36.692001       25.857000
 H        36.615002       37.730000       26.875000
 O        37.069000       35.603001       28.670000
 C        36.994999       34.957001       29.833000
 O        35.981998       34.358002       30.163000
 N        38.025002       35.221001       30.642000
 H        38.769001       35.783001       30.247999
 C        37.969002       34.952999       32.123001
 C        39.146999       35.744999       32.869999
 N        38.700001       36.654999       33.848000
 H        37.696999       36.660999       33.986000
 O        40.331001       35.601002       32.568001
 H        36.957001       35.226002       32.448002
 C        38.234001       33.430000       32.303001
 H        39.157001       33.119999       31.799000
 H        37.436001       32.825001       31.855000
 C        38.252998       33.077000       33.778000
 C        39.462002       33.271999       34.487999
 C        39.529999       33.143002       35.881001
 H        40.495998       33.340000       36.337002
 H        40.376999       33.584000       33.993999
 C        37.143002       32.638000       34.505001
 H        36.202999       32.404999       34.014000
 C        37.166000       32.561001       35.959000
 H        36.209999       32.327999       36.418999
 C        38.348999       32.778000       36.640999
 O        38.345001       32.860001       38.035000
 C        38.514000       34.101002       38.525002
 C        39.754002       34.455002       39.076000
 C        40.056999       35.853001       39.352001
 H        40.956001       36.216999       39.840000
 H        40.353001       33.597000       39.362999
 C        37.624001       35.109001       38.237999
 H        36.730000       34.791000       37.709000
 C        37.896999       36.473000       38.484001
 H        37.175999       37.252998       38.256001
 C        39.145000       36.884998       39.014999
 C        39.567001       38.344002       39.009998
 O        40.455002       38.707001       39.726002
 C        38.841000       39.223000       37.953999
 H        37.772999       38.988998       37.862999
 H        38.861000       40.299000       38.168999
 N        39.404999       38.994999       36.608002
 H        40.408001       38.980000       36.469002
 C        38.639000       38.471001       35.598000
 O        37.467999       38.520000       35.477001
 C        39.470001       37.705002       34.556000
 H        40.384998       37.205002       34.896999
 C        39.824001       38.723999       33.546001
 C        38.834000       39.400002       32.807999
 H        37.821999       39.007999       32.826000
 C        39.140999       40.660999       32.219002
 H        38.425999       41.201000       31.605000
 C        40.499001       41.127998       32.207001
 H        40.714001       42.026001       31.636000
 C        41.439999       40.509998       33.047001
 H        42.389999       40.991001       33.259998
 C        41.120998       39.310001       33.700001
 H        41.816002       38.883999       34.417000
